
---------- Begin Simulation Statistics ----------
sim_seconds                                  0.772247                       # Number of seconds simulated
sim_ticks                                772246592000                       # Number of ticks simulated
final_tick                               772246592000                       # Number of ticks from beginning of simulation (restored from checkpoints and never reset)
sim_freq                                 1000000000000                       # Frequency of simulated ticks
host_inst_rate                                 600319                       # Simulator instruction rate (inst/s)
host_op_rate                                   991926                       # Simulator op (including micro ops) rate (op/s)
host_tick_rate                             1214188691                       # Simulator tick rate (ticks/s)
host_mem_usage                                 671816                       # Number of bytes of host memory used
host_seconds                                   636.02                       # Real time elapsed on the host
sim_insts                                   381813899                       # Number of instructions simulated
sim_ops                                     630883425                       # Number of ops (including micro ops) simulated
system.voltage_domain.voltage                       1                       # Voltage in Volts
system.clk_domain.clock                          1000                       # Clock period in ticks
system.mem_ctrls.pwrStateResidencyTicks::UNDEFINED 772246592000                       # Cumulative time (in ticks) in various power states
system.mem_ctrls.bytes_read::cpu.inst           21056                       # Number of bytes read from this memory
system.mem_ctrls.bytes_read::cpu.data        17897600                       # Number of bytes read from this memory
system.mem_ctrls.bytes_read::total           17918656                       # Number of bytes read from this memory
system.mem_ctrls.bytes_inst_read::cpu.inst        21056                       # Number of instructions bytes read from this memory
system.mem_ctrls.bytes_inst_read::total         21056                       # Number of instructions bytes read from this memory
system.mem_ctrls.bytes_written::writebacks     16445312                       # Number of bytes written to this memory
system.mem_ctrls.bytes_written::total        16445312                       # Number of bytes written to this memory
system.mem_ctrls.num_reads::cpu.inst              329                       # Number of read requests responded to by this memory
system.mem_ctrls.num_reads::cpu.data           279650                       # Number of read requests responded to by this memory
system.mem_ctrls.num_reads::total              279979                       # Number of read requests responded to by this memory
system.mem_ctrls.num_writes::writebacks        256958                       # Number of write requests responded to by this memory
system.mem_ctrls.num_writes::total             256958                       # Number of write requests responded to by this memory
system.mem_ctrls.bw_read::cpu.inst              27266                       # Total read bandwidth from this memory (bytes/s)
system.mem_ctrls.bw_read::cpu.data           23176017                       # Total read bandwidth from this memory (bytes/s)
system.mem_ctrls.bw_read::total              23203283                       # Total read bandwidth from this memory (bytes/s)
system.mem_ctrls.bw_inst_read::cpu.inst         27266                       # Instruction read bandwidth from this memory (bytes/s)
system.mem_ctrls.bw_inst_read::total            27266                       # Instruction read bandwidth from this memory (bytes/s)
system.mem_ctrls.bw_write::writebacks        21295415                       # Write bandwidth from this memory (bytes/s)
system.mem_ctrls.bw_write::total             21295415                       # Write bandwidth from this memory (bytes/s)
system.mem_ctrls.bw_total::writebacks        21295415                       # Total bandwidth to/from this memory (bytes/s)
system.mem_ctrls.bw_total::cpu.inst             27266                       # Total bandwidth to/from this memory (bytes/s)
system.mem_ctrls.bw_total::cpu.data          23176017                       # Total bandwidth to/from this memory (bytes/s)
system.mem_ctrls.bw_total::total             44498698                       # Total bandwidth to/from this memory (bytes/s)
system.pwrStateResidencyTicks::UNDEFINED 772246592000                       # Cumulative time (in ticks) in various power states
system.cpu_voltage_domain.voltage                   1                       # Voltage in Volts
system.cpu_clk_domain.clock                       500                       # Clock period in ticks
system.cpu.dtb.walker.pwrStateResidencyTicks::UNDEFINED 772246592000                       # Cumulative time (in ticks) in various power states
system.cpu.dtb.rdAccesses                   112054504                       # TLB accesses on read requests
system.cpu.dtb.wrAccesses                    63202318                       # TLB accesses on write requests
system.cpu.dtb.rdMisses                          5914                       # TLB misses on read requests
system.cpu.dtb.wrMisses                           998                       # TLB misses on write requests
system.cpu.apic_clk_domain.clock                 8000                       # Clock period in ticks
system.cpu.interrupts.pwrStateResidencyTicks::UNDEFINED 772246592000                       # Cumulative time (in ticks) in various power states
system.cpu.itb.walker.pwrStateResidencyTicks::UNDEFINED 772246592000                       # Cumulative time (in ticks) in various power states
system.cpu.itb.rdAccesses                           0                       # TLB accesses on read requests
system.cpu.itb.wrAccesses                   464378778                       # TLB accesses on write requests
system.cpu.itb.rdMisses                             0                       # TLB misses on read requests
system.cpu.itb.wrMisses                            39                       # TLB misses on write requests
system.cpu.workload.numSyscalls                     9                       # Number of system calls
system.cpu.pwrStateResidencyTicks::ON    772246592000                       # Cumulative time (in ticks) in various power states
system.cpu.numCycles                       1544493184                       # number of cpu cycles simulated
system.cpu.numWorkItemsStarted                      0                       # number of work items this cpu started
system.cpu.numWorkItemsCompleted                    0                       # number of work items this cpu completed
system.cpu.committedInsts                   381813899                       # Number of instructions committed
system.cpu.committedOps                     630883425                       # Number of ops (including micro ops) committed
system.cpu.num_int_alu_accesses             630020008                       # Number of integer alu accesses
system.cpu.num_fp_alu_accesses                      6                       # Number of float alu accesses
system.cpu.num_vec_alu_accesses                     0                       # Number of vector alu accesses
system.cpu.num_func_calls                     9726726                       # number of times a function call or return occured
system.cpu.num_conditional_control_insts     45204210                       # number of instructions that are conditional controls
system.cpu.num_int_insts                    630020008                       # number of integer instructions
system.cpu.num_fp_insts                             6                       # number of float instructions
system.cpu.num_vec_insts                            0                       # number of vector instructions
system.cpu.num_int_register_reads          1310463787                       # number of times the integer registers were read
system.cpu.num_int_register_writes          493915636                       # number of times the integer registers were written
system.cpu.num_fp_register_reads                    2                       # number of times the floating registers were read
system.cpu.num_fp_register_writes                   4                       # number of times the floating registers were written
system.cpu.num_vec_register_reads                   0                       # number of times the vector registers were read
system.cpu.num_vec_register_writes                  0                       # number of times the vector registers were written
system.cpu.num_cc_register_reads            246748868                       # number of times the CC registers were read
system.cpu.num_cc_register_writes           186133039                       # number of times the CC registers were written
system.cpu.num_mem_refs                     175256820                       # number of memory refs
system.cpu.num_load_insts                   112054502                       # Number of load instructions
system.cpu.num_store_insts                   63202318                       # Number of store instructions
system.cpu.num_idle_cycles                          0                       # Number of idle cycles
system.cpu.num_busy_cycles                 1544493184                       # Number of busy cycles
system.cpu.not_idle_fraction                        1                       # Percentage of non-idle cycles
system.cpu.idle_fraction                            0                       # Percentage of idle cycles
system.cpu.Branches                          74902360                       # Number of branches fetched
system.cpu.op_class::No_OpClass                   265      0.00%      0.00% # Class of executed instruction
system.cpu.op_class::IntAlu                 453626289     71.90%     71.90% # Class of executed instruction
system.cpu.op_class::IntMult                  2000042      0.32%     72.22% # Class of executed instruction
system.cpu.op_class::IntDiv                         7      0.00%     72.22% # Class of executed instruction
system.cpu.op_class::FloatAdd                       2      0.00%     72.22% # Class of executed instruction
system.cpu.op_class::FloatCmp                       0      0.00%     72.22% # Class of executed instruction
system.cpu.op_class::FloatCvt                       0      0.00%     72.22% # Class of executed instruction
system.cpu.op_class::FloatMult                      0      0.00%     72.22% # Class of executed instruction
system.cpu.op_class::FloatMultAcc                   0      0.00%     72.22% # Class of executed instruction
system.cpu.op_class::FloatDiv                       0      0.00%     72.22% # Class of executed instruction
system.cpu.op_class::FloatMisc                      0      0.00%     72.22% # Class of executed instruction
system.cpu.op_class::FloatSqrt                      0      0.00%     72.22% # Class of executed instruction
system.cpu.op_class::SimdAdd                        0      0.00%     72.22% # Class of executed instruction
system.cpu.op_class::SimdAddAcc                     0      0.00%     72.22% # Class of executed instruction
system.cpu.op_class::SimdAlu                        0      0.00%     72.22% # Class of executed instruction
system.cpu.op_class::SimdCmp                        0      0.00%     72.22% # Class of executed instruction
system.cpu.op_class::SimdCvt                        0      0.00%     72.22% # Class of executed instruction
system.cpu.op_class::SimdMisc                       0      0.00%     72.22% # Class of executed instruction
system.cpu.op_class::SimdMult                       0      0.00%     72.22% # Class of executed instruction
system.cpu.op_class::SimdMultAcc                    0      0.00%     72.22% # Class of executed instruction
system.cpu.op_class::SimdShift                      0      0.00%     72.22% # Class of executed instruction
system.cpu.op_class::SimdShiftAcc                   0      0.00%     72.22% # Class of executed instruction
system.cpu.op_class::SimdSqrt                       0      0.00%     72.22% # Class of executed instruction
system.cpu.op_class::SimdFloatAdd                   0      0.00%     72.22% # Class of executed instruction
system.cpu.op_class::SimdFloatAlu                   0      0.00%     72.22% # Class of executed instruction
system.cpu.op_class::SimdFloatCmp                   0      0.00%     72.22% # Class of executed instruction
system.cpu.op_class::SimdFloatCvt                   0      0.00%     72.22% # Class of executed instruction
system.cpu.op_class::SimdFloatDiv                   0      0.00%     72.22% # Class of executed instruction
system.cpu.op_class::SimdFloatMisc                  0      0.00%     72.22% # Class of executed instruction
system.cpu.op_class::SimdFloatMult                  0      0.00%     72.22% # Class of executed instruction
system.cpu.op_class::SimdFloatMultAcc               0      0.00%     72.22% # Class of executed instruction
system.cpu.op_class::SimdFloatSqrt                  0      0.00%     72.22% # Class of executed instruction
system.cpu.op_class::MemRead                112054500     17.76%     89.98% # Class of executed instruction
system.cpu.op_class::MemWrite                63202316     10.02%    100.00% # Class of executed instruction
system.cpu.op_class::FloatMemRead                   2      0.00%    100.00% # Class of executed instruction
system.cpu.op_class::FloatMemWrite                  2      0.00%    100.00% # Class of executed instruction
system.cpu.op_class::IprAccess                      0      0.00%    100.00% # Class of executed instruction
system.cpu.op_class::InstPrefetch                   0      0.00%    100.00% # Class of executed instruction
system.cpu.op_class::total                  630883425                       # Class of executed instruction
system.cpu.dcache.tags.pwrStateResidencyTicks::UNDEFINED 772246592000                       # Cumulative time (in ticks) in various power states
system.cpu.dcache.tags.tagsinuse           511.667813                       # Cycle average of tags in use
system.cpu.dcache.tags.total_refs           175256822                       # Total number of references to valid blocks.
system.cpu.dcache.tags.sampled_refs            681694                       # Sample count of references to valid blocks.
system.cpu.dcache.tags.avg_refs            257.090164                       # Average number of references to valid blocks.
system.cpu.dcache.tags.warmup_cycle            765000                       # Cycle when the warmup percentage was hit.
system.cpu.dcache.tags.occ_blocks::cpu.data   511.667813                       # Average occupied blocks per requestor
system.cpu.dcache.tags.occ_percent::cpu.data     0.999351                       # Average percentage of cache occupancy
system.cpu.dcache.tags.occ_percent::total     0.999351                       # Average percentage of cache occupancy
system.cpu.dcache.tags.occ_task_id_blocks::1024          512                       # Occupied blocks per task id
system.cpu.dcache.tags.age_task_id_blocks_1024::0           10                       # Occupied blocks per task id
system.cpu.dcache.tags.age_task_id_blocks_1024::1           12                       # Occupied blocks per task id
system.cpu.dcache.tags.age_task_id_blocks_1024::2           69                       # Occupied blocks per task id
system.cpu.dcache.tags.age_task_id_blocks_1024::3          421                       # Occupied blocks per task id
system.cpu.dcache.tags.occ_task_id_percent::1024            1                       # Percentage of cache occupancy per task id
system.cpu.dcache.tags.tag_accesses         351195338                       # Number of tag accesses
system.cpu.dcache.tags.data_accesses        351195338                       # Number of data accesses
system.cpu.dcache.pwrStateResidencyTicks::UNDEFINED 772246592000                       # Cumulative time (in ticks) in various power states
system.cpu.dcache.ReadReq_hits::cpu.data    111438967                       # number of ReadReq hits
system.cpu.dcache.ReadReq_hits::total       111438967                       # number of ReadReq hits
system.cpu.dcache.WriteReq_hits::cpu.data     62916239                       # number of WriteReq hits
system.cpu.dcache.WriteReq_hits::total       62916239                       # number of WriteReq hits
system.cpu.dcache.demand_hits::cpu.data     174355206                       # number of demand (read+write) hits
system.cpu.dcache.demand_hits::total        174355206                       # number of demand (read+write) hits
system.cpu.dcache.overall_hits::cpu.data    174355206                       # number of overall hits
system.cpu.dcache.overall_hits::total       174355206                       # number of overall hits
system.cpu.dcache.ReadReq_misses::cpu.data       615537                       # number of ReadReq misses
system.cpu.dcache.ReadReq_misses::total        615537                       # number of ReadReq misses
system.cpu.dcache.WriteReq_misses::cpu.data       286079                       # number of WriteReq misses
system.cpu.dcache.WriteReq_misses::total       286079                       # number of WriteReq misses
system.cpu.dcache.demand_misses::cpu.data       901616                       # number of demand (read+write) misses
system.cpu.dcache.demand_misses::total         901616                       # number of demand (read+write) misses
system.cpu.dcache.overall_misses::cpu.data       901616                       # number of overall misses
system.cpu.dcache.overall_misses::total        901616                       # number of overall misses
system.cpu.dcache.ReadReq_miss_latency::cpu.data 111909801000                       # number of ReadReq miss cycles
system.cpu.dcache.ReadReq_miss_latency::total 111909801000                       # number of ReadReq miss cycles
system.cpu.dcache.WriteReq_miss_latency::cpu.data  21536549500                       # number of WriteReq miss cycles
system.cpu.dcache.WriteReq_miss_latency::total  21536549500                       # number of WriteReq miss cycles
system.cpu.dcache.demand_miss_latency::cpu.data 133446350500                       # number of demand (read+write) miss cycles
system.cpu.dcache.demand_miss_latency::total 133446350500                       # number of demand (read+write) miss cycles
system.cpu.dcache.overall_miss_latency::cpu.data 133446350500                       # number of overall miss cycles
system.cpu.dcache.overall_miss_latency::total 133446350500                       # number of overall miss cycles
system.cpu.dcache.ReadReq_accesses::cpu.data    112054504                       # number of ReadReq accesses(hits+misses)
system.cpu.dcache.ReadReq_accesses::total    112054504                       # number of ReadReq accesses(hits+misses)
system.cpu.dcache.WriteReq_accesses::cpu.data     63202318                       # number of WriteReq accesses(hits+misses)
system.cpu.dcache.WriteReq_accesses::total     63202318                       # number of WriteReq accesses(hits+misses)
system.cpu.dcache.demand_accesses::cpu.data    175256822                       # number of demand (read+write) accesses
system.cpu.dcache.demand_accesses::total    175256822                       # number of demand (read+write) accesses
system.cpu.dcache.overall_accesses::cpu.data    175256822                       # number of overall (read+write) accesses
system.cpu.dcache.overall_accesses::total    175256822                       # number of overall (read+write) accesses
system.cpu.dcache.ReadReq_miss_rate::cpu.data     0.005493                       # miss rate for ReadReq accesses
system.cpu.dcache.ReadReq_miss_rate::total     0.005493                       # miss rate for ReadReq accesses
system.cpu.dcache.WriteReq_miss_rate::cpu.data     0.004526                       # miss rate for WriteReq accesses
system.cpu.dcache.WriteReq_miss_rate::total     0.004526                       # miss rate for WriteReq accesses
system.cpu.dcache.demand_miss_rate::cpu.data     0.005145                       # miss rate for demand accesses
system.cpu.dcache.demand_miss_rate::total     0.005145                       # miss rate for demand accesses
system.cpu.dcache.overall_miss_rate::cpu.data     0.005145                       # miss rate for overall accesses
system.cpu.dcache.overall_miss_rate::total     0.005145                       # miss rate for overall accesses
system.cpu.dcache.ReadReq_avg_miss_latency::cpu.data 181808.406318                       # average ReadReq miss latency
system.cpu.dcache.ReadReq_avg_miss_latency::total 181808.406318                       # average ReadReq miss latency
system.cpu.dcache.WriteReq_avg_miss_latency::cpu.data 75281.825999                       # average WriteReq miss latency
system.cpu.dcache.WriteReq_avg_miss_latency::total 75281.825999                       # average WriteReq miss latency
system.cpu.dcache.demand_avg_miss_latency::cpu.data 148007.966252                       # average overall miss latency
system.cpu.dcache.demand_avg_miss_latency::total 148007.966252                       # average overall miss latency
system.cpu.dcache.overall_avg_miss_latency::cpu.data 148007.966252                       # average overall miss latency
system.cpu.dcache.overall_avg_miss_latency::total 148007.966252                       # average overall miss latency
system.cpu.dcache.blocked_cycles::no_mshrs            0                       # number of cycles access was blocked
system.cpu.dcache.blocked_cycles::no_targets            0                       # number of cycles access was blocked
system.cpu.dcache.blocked::no_mshrs                 0                       # number of cycles access was blocked
system.cpu.dcache.blocked::no_targets               0                       # number of cycles access was blocked
system.cpu.dcache.avg_blocked_cycles::no_mshrs          nan                       # average number of cycles each access was blocked
system.cpu.dcache.avg_blocked_cycles::no_targets          nan                       # average number of cycles each access was blocked
system.cpu.dcache.writebacks::writebacks       656818                       # number of writebacks
system.cpu.dcache.writebacks::total            656818                       # number of writebacks
system.cpu.dcache.ReadReq_mshr_misses::cpu.data       615537                       # number of ReadReq MSHR misses
system.cpu.dcache.ReadReq_mshr_misses::total       615537                       # number of ReadReq MSHR misses
system.cpu.dcache.WriteReq_mshr_misses::cpu.data       286079                       # number of WriteReq MSHR misses
system.cpu.dcache.WriteReq_mshr_misses::total       286079                       # number of WriteReq MSHR misses
system.cpu.dcache.demand_mshr_misses::cpu.data       901616                       # number of demand (read+write) MSHR misses
system.cpu.dcache.demand_mshr_misses::total       901616                       # number of demand (read+write) MSHR misses
system.cpu.dcache.overall_mshr_misses::cpu.data       901616                       # number of overall MSHR misses
system.cpu.dcache.overall_mshr_misses::total       901616                       # number of overall MSHR misses
system.cpu.dcache.ReadReq_mshr_miss_latency::cpu.data 111294264000                       # number of ReadReq MSHR miss cycles
system.cpu.dcache.ReadReq_mshr_miss_latency::total 111294264000                       # number of ReadReq MSHR miss cycles
system.cpu.dcache.WriteReq_mshr_miss_latency::cpu.data  21250470500                       # number of WriteReq MSHR miss cycles
system.cpu.dcache.WriteReq_mshr_miss_latency::total  21250470500                       # number of WriteReq MSHR miss cycles
system.cpu.dcache.demand_mshr_miss_latency::cpu.data 132544734500                       # number of demand (read+write) MSHR miss cycles
system.cpu.dcache.demand_mshr_miss_latency::total 132544734500                       # number of demand (read+write) MSHR miss cycles
system.cpu.dcache.overall_mshr_miss_latency::cpu.data 132544734500                       # number of overall MSHR miss cycles
system.cpu.dcache.overall_mshr_miss_latency::total 132544734500                       # number of overall MSHR miss cycles
system.cpu.dcache.ReadReq_mshr_miss_rate::cpu.data     0.005493                       # mshr miss rate for ReadReq accesses
system.cpu.dcache.ReadReq_mshr_miss_rate::total     0.005493                       # mshr miss rate for ReadReq accesses
system.cpu.dcache.WriteReq_mshr_miss_rate::cpu.data     0.004526                       # mshr miss rate for WriteReq accesses
system.cpu.dcache.WriteReq_mshr_miss_rate::total     0.004526                       # mshr miss rate for WriteReq accesses
system.cpu.dcache.demand_mshr_miss_rate::cpu.data     0.005145                       # mshr miss rate for demand accesses
system.cpu.dcache.demand_mshr_miss_rate::total     0.005145                       # mshr miss rate for demand accesses
system.cpu.dcache.overall_mshr_miss_rate::cpu.data     0.005145                       # mshr miss rate for overall accesses
system.cpu.dcache.overall_mshr_miss_rate::total     0.005145                       # mshr miss rate for overall accesses
system.cpu.dcache.ReadReq_avg_mshr_miss_latency::cpu.data 180808.406318                       # average ReadReq mshr miss latency
system.cpu.dcache.ReadReq_avg_mshr_miss_latency::total 180808.406318                       # average ReadReq mshr miss latency
system.cpu.dcache.WriteReq_avg_mshr_miss_latency::cpu.data 74281.825999                       # average WriteReq mshr miss latency
system.cpu.dcache.WriteReq_avg_mshr_miss_latency::total 74281.825999                       # average WriteReq mshr miss latency
system.cpu.dcache.demand_avg_mshr_miss_latency::cpu.data 147007.966252                       # average overall mshr miss latency
system.cpu.dcache.demand_avg_mshr_miss_latency::total 147007.966252                       # average overall mshr miss latency
system.cpu.dcache.overall_avg_mshr_miss_latency::cpu.data 147007.966252                       # average overall mshr miss latency
system.cpu.dcache.overall_avg_mshr_miss_latency::total 147007.966252                       # average overall mshr miss latency
system.cpu.dcache.replacements                 681182                       # number of replacements
system.cpu.dtb_walker_cache.tags.pwrStateResidencyTicks::UNDEFINED 772246592000                       # Cumulative time (in ticks) in various power states
system.cpu.dtb_walker_cache.tags.tagsinuse            0                       # Cycle average of tags in use
system.cpu.dtb_walker_cache.tags.total_refs            0                       # Total number of references to valid blocks.
system.cpu.dtb_walker_cache.tags.sampled_refs            0                       # Sample count of references to valid blocks.
system.cpu.dtb_walker_cache.tags.avg_refs          nan                       # Average number of references to valid blocks.
system.cpu.dtb_walker_cache.tags.warmup_cycle            0                       # Cycle when the warmup percentage was hit.
system.cpu.dtb_walker_cache.tags.tag_accesses            0                       # Number of tag accesses
system.cpu.dtb_walker_cache.tags.data_accesses            0                       # Number of data accesses
system.cpu.dtb_walker_cache.pwrStateResidencyTicks::UNDEFINED 772246592000                       # Cumulative time (in ticks) in various power states
system.cpu.dtb_walker_cache.blocked_cycles::no_mshrs            0                       # number of cycles access was blocked
system.cpu.dtb_walker_cache.blocked_cycles::no_targets            0                       # number of cycles access was blocked
system.cpu.dtb_walker_cache.blocked::no_mshrs            0                       # number of cycles access was blocked
system.cpu.dtb_walker_cache.blocked::no_targets            0                       # number of cycles access was blocked
system.cpu.dtb_walker_cache.avg_blocked_cycles::no_mshrs          nan                       # average number of cycles each access was blocked
system.cpu.dtb_walker_cache.avg_blocked_cycles::no_targets          nan                       # average number of cycles each access was blocked
system.cpu.dtb_walker_cache.replacements            0                       # number of replacements
system.cpu.icache.tags.pwrStateResidencyTicks::UNDEFINED 772246592000                       # Cumulative time (in ticks) in various power states
system.cpu.icache.tags.tagsinuse           258.028634                       # Cycle average of tags in use
system.cpu.icache.tags.total_refs           464378778                       # Total number of references to valid blocks.
system.cpu.icache.tags.sampled_refs               338                       # Sample count of references to valid blocks.
system.cpu.icache.tags.avg_refs          1373901.710059                       # Average number of references to valid blocks.
system.cpu.icache.tags.warmup_cycle            445000                       # Cycle when the warmup percentage was hit.
system.cpu.icache.tags.occ_blocks::cpu.inst   258.028634                       # Average occupied blocks per requestor
system.cpu.icache.tags.occ_percent::cpu.inst     0.503962                       # Average percentage of cache occupancy
system.cpu.icache.tags.occ_percent::total     0.503962                       # Average percentage of cache occupancy
system.cpu.icache.tags.occ_task_id_blocks::1024          281                       # Occupied blocks per task id
system.cpu.icache.tags.age_task_id_blocks_1024::0           20                       # Occupied blocks per task id
system.cpu.icache.tags.age_task_id_blocks_1024::1           20                       # Occupied blocks per task id
system.cpu.icache.tags.age_task_id_blocks_1024::4          241                       # Occupied blocks per task id
system.cpu.icache.tags.occ_task_id_percent::1024     0.548828                       # Percentage of cache occupancy per task id
system.cpu.icache.tags.tag_accesses         928757894                       # Number of tag accesses
system.cpu.icache.tags.data_accesses        928757894                       # Number of data accesses
system.cpu.icache.pwrStateResidencyTicks::UNDEFINED 772246592000                       # Cumulative time (in ticks) in various power states
system.cpu.icache.ReadReq_hits::cpu.inst    464378440                       # number of ReadReq hits
system.cpu.icache.ReadReq_hits::total       464378440                       # number of ReadReq hits
system.cpu.icache.demand_hits::cpu.inst     464378440                       # number of demand (read+write) hits
system.cpu.icache.demand_hits::total        464378440                       # number of demand (read+write) hits
system.cpu.icache.overall_hits::cpu.inst    464378440                       # number of overall hits
system.cpu.icache.overall_hits::total       464378440                       # number of overall hits
system.cpu.icache.ReadReq_misses::cpu.inst          338                       # number of ReadReq misses
system.cpu.icache.ReadReq_misses::total           338                       # number of ReadReq misses
system.cpu.icache.demand_misses::cpu.inst          338                       # number of demand (read+write) misses
system.cpu.icache.demand_misses::total            338                       # number of demand (read+write) misses
system.cpu.icache.overall_misses::cpu.inst          338                       # number of overall misses
system.cpu.icache.overall_misses::total           338                       # number of overall misses
system.cpu.icache.ReadReq_miss_latency::cpu.inst     66597500                       # number of ReadReq miss cycles
system.cpu.icache.ReadReq_miss_latency::total     66597500                       # number of ReadReq miss cycles
system.cpu.icache.demand_miss_latency::cpu.inst     66597500                       # number of demand (read+write) miss cycles
system.cpu.icache.demand_miss_latency::total     66597500                       # number of demand (read+write) miss cycles
system.cpu.icache.overall_miss_latency::cpu.inst     66597500                       # number of overall miss cycles
system.cpu.icache.overall_miss_latency::total     66597500                       # number of overall miss cycles
system.cpu.icache.ReadReq_accesses::cpu.inst    464378778                       # number of ReadReq accesses(hits+misses)
system.cpu.icache.ReadReq_accesses::total    464378778                       # number of ReadReq accesses(hits+misses)
system.cpu.icache.demand_accesses::cpu.inst    464378778                       # number of demand (read+write) accesses
system.cpu.icache.demand_accesses::total    464378778                       # number of demand (read+write) accesses
system.cpu.icache.overall_accesses::cpu.inst    464378778                       # number of overall (read+write) accesses
system.cpu.icache.overall_accesses::total    464378778                       # number of overall (read+write) accesses
system.cpu.icache.ReadReq_miss_rate::cpu.inst     0.000001                       # miss rate for ReadReq accesses
system.cpu.icache.ReadReq_miss_rate::total     0.000001                       # miss rate for ReadReq accesses
system.cpu.icache.demand_miss_rate::cpu.inst     0.000001                       # miss rate for demand accesses
system.cpu.icache.demand_miss_rate::total     0.000001                       # miss rate for demand accesses
system.cpu.icache.overall_miss_rate::cpu.inst     0.000001                       # miss rate for overall accesses
system.cpu.icache.overall_miss_rate::total     0.000001                       # miss rate for overall accesses
system.cpu.icache.ReadReq_avg_miss_latency::cpu.inst 197034.023669                       # average ReadReq miss latency
system.cpu.icache.ReadReq_avg_miss_latency::total 197034.023669                       # average ReadReq miss latency
system.cpu.icache.demand_avg_miss_latency::cpu.inst 197034.023669                       # average overall miss latency
system.cpu.icache.demand_avg_miss_latency::total 197034.023669                       # average overall miss latency
system.cpu.icache.overall_avg_miss_latency::cpu.inst 197034.023669                       # average overall miss latency
system.cpu.icache.overall_avg_miss_latency::total 197034.023669                       # average overall miss latency
system.cpu.icache.blocked_cycles::no_mshrs            0                       # number of cycles access was blocked
system.cpu.icache.blocked_cycles::no_targets            0                       # number of cycles access was blocked
system.cpu.icache.blocked::no_mshrs                 0                       # number of cycles access was blocked
system.cpu.icache.blocked::no_targets               0                       # number of cycles access was blocked
system.cpu.icache.avg_blocked_cycles::no_mshrs          nan                       # average number of cycles each access was blocked
system.cpu.icache.avg_blocked_cycles::no_targets          nan                       # average number of cycles each access was blocked
system.cpu.icache.writebacks::writebacks           57                       # number of writebacks
system.cpu.icache.writebacks::total                57                       # number of writebacks
system.cpu.icache.ReadReq_mshr_misses::cpu.inst          338                       # number of ReadReq MSHR misses
system.cpu.icache.ReadReq_mshr_misses::total          338                       # number of ReadReq MSHR misses
system.cpu.icache.demand_mshr_misses::cpu.inst          338                       # number of demand (read+write) MSHR misses
system.cpu.icache.demand_mshr_misses::total          338                       # number of demand (read+write) MSHR misses
system.cpu.icache.overall_mshr_misses::cpu.inst          338                       # number of overall MSHR misses
system.cpu.icache.overall_mshr_misses::total          338                       # number of overall MSHR misses
system.cpu.icache.ReadReq_mshr_miss_latency::cpu.inst     66259500                       # number of ReadReq MSHR miss cycles
system.cpu.icache.ReadReq_mshr_miss_latency::total     66259500                       # number of ReadReq MSHR miss cycles
system.cpu.icache.demand_mshr_miss_latency::cpu.inst     66259500                       # number of demand (read+write) MSHR miss cycles
system.cpu.icache.demand_mshr_miss_latency::total     66259500                       # number of demand (read+write) MSHR miss cycles
system.cpu.icache.overall_mshr_miss_latency::cpu.inst     66259500                       # number of overall MSHR miss cycles
system.cpu.icache.overall_mshr_miss_latency::total     66259500                       # number of overall MSHR miss cycles
system.cpu.icache.ReadReq_mshr_miss_rate::cpu.inst     0.000001                       # mshr miss rate for ReadReq accesses
system.cpu.icache.ReadReq_mshr_miss_rate::total     0.000001                       # mshr miss rate for ReadReq accesses
system.cpu.icache.demand_mshr_miss_rate::cpu.inst     0.000001                       # mshr miss rate for demand accesses
system.cpu.icache.demand_mshr_miss_rate::total     0.000001                       # mshr miss rate for demand accesses
system.cpu.icache.overall_mshr_miss_rate::cpu.inst     0.000001                       # mshr miss rate for overall accesses
system.cpu.icache.overall_mshr_miss_rate::total     0.000001                       # mshr miss rate for overall accesses
system.cpu.icache.ReadReq_avg_mshr_miss_latency::cpu.inst 196034.023669                       # average ReadReq mshr miss latency
system.cpu.icache.ReadReq_avg_mshr_miss_latency::total 196034.023669                       # average ReadReq mshr miss latency
system.cpu.icache.demand_avg_mshr_miss_latency::cpu.inst 196034.023669                       # average overall mshr miss latency
system.cpu.icache.demand_avg_mshr_miss_latency::total 196034.023669                       # average overall mshr miss latency
system.cpu.icache.overall_avg_mshr_miss_latency::cpu.inst 196034.023669                       # average overall mshr miss latency
system.cpu.icache.overall_avg_mshr_miss_latency::total 196034.023669                       # average overall mshr miss latency
system.cpu.icache.replacements                     57                       # number of replacements
system.cpu.itb_walker_cache.tags.pwrStateResidencyTicks::UNDEFINED 772246592000                       # Cumulative time (in ticks) in various power states
system.cpu.itb_walker_cache.tags.tagsinuse            0                       # Cycle average of tags in use
system.cpu.itb_walker_cache.tags.total_refs            0                       # Total number of references to valid blocks.
system.cpu.itb_walker_cache.tags.sampled_refs            0                       # Sample count of references to valid blocks.
system.cpu.itb_walker_cache.tags.avg_refs          nan                       # Average number of references to valid blocks.
system.cpu.itb_walker_cache.tags.warmup_cycle            0                       # Cycle when the warmup percentage was hit.
system.cpu.itb_walker_cache.tags.tag_accesses            0                       # Number of tag accesses
system.cpu.itb_walker_cache.tags.data_accesses            0                       # Number of data accesses
system.cpu.itb_walker_cache.pwrStateResidencyTicks::UNDEFINED 772246592000                       # Cumulative time (in ticks) in various power states
system.cpu.itb_walker_cache.blocked_cycles::no_mshrs            0                       # number of cycles access was blocked
system.cpu.itb_walker_cache.blocked_cycles::no_targets            0                       # number of cycles access was blocked
system.cpu.itb_walker_cache.blocked::no_mshrs            0                       # number of cycles access was blocked
system.cpu.itb_walker_cache.blocked::no_targets            0                       # number of cycles access was blocked
system.cpu.itb_walker_cache.avg_blocked_cycles::no_mshrs          nan                       # average number of cycles each access was blocked
system.cpu.itb_walker_cache.avg_blocked_cycles::no_targets          nan                       # average number of cycles each access was blocked
system.cpu.itb_walker_cache.replacements            0                       # number of replacements
system.l2.tags.pwrStateResidencyTicks::UNDEFINED 772246592000                       # Cumulative time (in ticks) in various power states
system.l2.tags.tagsinuse                  2043.261721                       # Cycle average of tags in use
system.l2.tags.total_refs                     1583192                       # Total number of references to valid blocks.
system.l2.tags.sampled_refs                    518582                       # Sample count of references to valid blocks.
system.l2.tags.avg_refs                      3.052925                       # Average number of references to valid blocks.
system.l2.tags.warmup_cycle                    434500                       # Cycle when the warmup percentage was hit.
system.l2.tags.occ_blocks::writebacks        0.989290                       # Average occupied blocks per requestor
system.l2.tags.occ_blocks::cpu.inst          1.583886                       # Average occupied blocks per requestor
system.l2.tags.occ_blocks::cpu.data       2040.688545                       # Average occupied blocks per requestor
system.l2.tags.occ_percent::writebacks       0.000483                       # Average percentage of cache occupancy
system.l2.tags.occ_percent::cpu.inst         0.000773                       # Average percentage of cache occupancy
system.l2.tags.occ_percent::cpu.data         0.996430                       # Average percentage of cache occupancy
system.l2.tags.occ_percent::total            0.997686                       # Average percentage of cache occupancy
system.l2.tags.occ_task_id_blocks::1024          2048                       # Occupied blocks per task id
system.l2.tags.age_task_id_blocks_1024::0           40                       # Occupied blocks per task id
system.l2.tags.age_task_id_blocks_1024::1           40                       # Occupied blocks per task id
system.l2.tags.age_task_id_blocks_1024::3          462                       # Occupied blocks per task id
system.l2.tags.age_task_id_blocks_1024::4         1506                       # Occupied blocks per task id
system.l2.tags.occ_task_id_percent::1024            1                       # Percentage of cache occupancy per task id
system.l2.tags.tag_accesses                  13184118                       # Number of tag accesses
system.l2.tags.data_accesses                 13184118                       # Number of data accesses
system.l2.pwrStateResidencyTicks::UNDEFINED 772246592000                       # Cumulative time (in ticks) in various power states
system.l2.WritebackDirty_hits::writebacks       656818                       # number of WritebackDirty hits
system.l2.WritebackDirty_hits::total           656818                       # number of WritebackDirty hits
system.l2.WritebackClean_hits::writebacks           57                       # number of WritebackClean hits
system.l2.WritebackClean_hits::total               57                       # number of WritebackClean hits
system.l2.UpgradeReq_hits::cpu.data            219922                       # number of UpgradeReq hits
system.l2.UpgradeReq_hits::total               219922                       # number of UpgradeReq hits
system.l2.ReadExReq_hits::cpu.data               2845                       # number of ReadExReq hits
system.l2.ReadExReq_hits::total                  2845                       # number of ReadExReq hits
system.l2.ReadCleanReq_hits::cpu.inst               9                       # number of ReadCleanReq hits
system.l2.ReadCleanReq_hits::total                  9                       # number of ReadCleanReq hits
system.l2.ReadSharedReq_hits::cpu.data         160753                       # number of ReadSharedReq hits
system.l2.ReadSharedReq_hits::total            160753                       # number of ReadSharedReq hits
system.l2.demand_hits::cpu.inst                     9                       # number of demand (read+write) hits
system.l2.demand_hits::cpu.data                163598                       # number of demand (read+write) hits
system.l2.demand_hits::total                   163607                       # number of demand (read+write) hits
system.l2.overall_hits::cpu.inst                    9                       # number of overall hits
system.l2.overall_hits::cpu.data               163598                       # number of overall hits
system.l2.overall_hits::total                  163607                       # number of overall hits
system.l2.ReadExReq_misses::cpu.data            63312                       # number of ReadExReq misses
system.l2.ReadExReq_misses::total               63312                       # number of ReadExReq misses
system.l2.ReadCleanReq_misses::cpu.inst           329                       # number of ReadCleanReq misses
system.l2.ReadCleanReq_misses::total              329                       # number of ReadCleanReq misses
system.l2.ReadSharedReq_misses::cpu.data       454784                       # number of ReadSharedReq misses
system.l2.ReadSharedReq_misses::total          454784                       # number of ReadSharedReq misses
system.l2.demand_misses::cpu.inst                 329                       # number of demand (read+write) misses
system.l2.demand_misses::cpu.data              518096                       # number of demand (read+write) misses
system.l2.demand_misses::total                 518425                       # number of demand (read+write) misses
system.l2.overall_misses::cpu.inst                329                       # number of overall misses
system.l2.overall_misses::cpu.data             518096                       # number of overall misses
system.l2.overall_misses::total                518425                       # number of overall misses
system.l2.ReadExReq_miss_latency::cpu.data  18482298500                       # number of ReadExReq miss cycles
system.l2.ReadExReq_miss_latency::total   18482298500                       # number of ReadExReq miss cycles
system.l2.ReadCleanReq_miss_latency::cpu.inst     65654500                       # number of ReadCleanReq miss cycles
system.l2.ReadCleanReq_miss_latency::total     65654500                       # number of ReadCleanReq miss cycles
system.l2.ReadSharedReq_miss_latency::cpu.data 108683051000                       # number of ReadSharedReq miss cycles
system.l2.ReadSharedReq_miss_latency::total 108683051000                       # number of ReadSharedReq miss cycles
system.l2.demand_miss_latency::cpu.inst      65654500                       # number of demand (read+write) miss cycles
system.l2.demand_miss_latency::cpu.data  127165349500                       # number of demand (read+write) miss cycles
system.l2.demand_miss_latency::total     127231004000                       # number of demand (read+write) miss cycles
system.l2.overall_miss_latency::cpu.inst     65654500                       # number of overall miss cycles
system.l2.overall_miss_latency::cpu.data 127165349500                       # number of overall miss cycles
system.l2.overall_miss_latency::total    127231004000                       # number of overall miss cycles
system.l2.WritebackDirty_accesses::writebacks       656818                       # number of WritebackDirty accesses(hits+misses)
system.l2.WritebackDirty_accesses::total       656818                       # number of WritebackDirty accesses(hits+misses)
system.l2.WritebackClean_accesses::writebacks           57                       # number of WritebackClean accesses(hits+misses)
system.l2.WritebackClean_accesses::total           57                       # number of WritebackClean accesses(hits+misses)
system.l2.UpgradeReq_accesses::cpu.data        219922                       # number of UpgradeReq accesses(hits+misses)
system.l2.UpgradeReq_accesses::total           219922                       # number of UpgradeReq accesses(hits+misses)
system.l2.ReadExReq_accesses::cpu.data          66157                       # number of ReadExReq accesses(hits+misses)
system.l2.ReadExReq_accesses::total             66157                       # number of ReadExReq accesses(hits+misses)
system.l2.ReadCleanReq_accesses::cpu.inst          338                       # number of ReadCleanReq accesses(hits+misses)
system.l2.ReadCleanReq_accesses::total            338                       # number of ReadCleanReq accesses(hits+misses)
system.l2.ReadSharedReq_accesses::cpu.data       615537                       # number of ReadSharedReq accesses(hits+misses)
system.l2.ReadSharedReq_accesses::total        615537                       # number of ReadSharedReq accesses(hits+misses)
system.l2.demand_accesses::cpu.inst               338                       # number of demand (read+write) accesses
system.l2.demand_accesses::cpu.data            681694                       # number of demand (read+write) accesses
system.l2.demand_accesses::total               682032                       # number of demand (read+write) accesses
system.l2.overall_accesses::cpu.inst              338                       # number of overall (read+write) accesses
system.l2.overall_accesses::cpu.data           681694                       # number of overall (read+write) accesses
system.l2.overall_accesses::total              682032                       # number of overall (read+write) accesses
system.l2.ReadExReq_miss_rate::cpu.data      0.956996                       # miss rate for ReadExReq accesses
system.l2.ReadExReq_miss_rate::total         0.956996                       # miss rate for ReadExReq accesses
system.l2.ReadCleanReq_miss_rate::cpu.inst     0.973373                       # miss rate for ReadCleanReq accesses
system.l2.ReadCleanReq_miss_rate::total      0.973373                       # miss rate for ReadCleanReq accesses
system.l2.ReadSharedReq_miss_rate::cpu.data     0.738841                       # miss rate for ReadSharedReq accesses
system.l2.ReadSharedReq_miss_rate::total     0.738841                       # miss rate for ReadSharedReq accesses
system.l2.demand_miss_rate::cpu.inst         0.973373                       # miss rate for demand accesses
system.l2.demand_miss_rate::cpu.data         0.760013                       # miss rate for demand accesses
system.l2.demand_miss_rate::total            0.760118                       # miss rate for demand accesses
system.l2.overall_miss_rate::cpu.inst        0.973373                       # miss rate for overall accesses
system.l2.overall_miss_rate::cpu.data        0.760013                       # miss rate for overall accesses
system.l2.overall_miss_rate::total           0.760118                       # miss rate for overall accesses
system.l2.ReadExReq_avg_miss_latency::cpu.data 291924.098117                       # average ReadExReq miss latency
system.l2.ReadExReq_avg_miss_latency::total 291924.098117                       # average ReadExReq miss latency
system.l2.ReadCleanReq_avg_miss_latency::cpu.inst 199557.750760                       # average ReadCleanReq miss latency
system.l2.ReadCleanReq_avg_miss_latency::total 199557.750760                       # average ReadCleanReq miss latency
system.l2.ReadSharedReq_avg_miss_latency::cpu.data 238977.296915                       # average ReadSharedReq miss latency
system.l2.ReadSharedReq_avg_miss_latency::total 238977.296915                       # average ReadSharedReq miss latency
system.l2.demand_avg_miss_latency::cpu.inst 199557.750760                       # average overall miss latency
system.l2.demand_avg_miss_latency::cpu.data 245447.464370                       # average overall miss latency
system.l2.demand_avg_miss_latency::total 245418.342094                       # average overall miss latency
system.l2.overall_avg_miss_latency::cpu.inst 199557.750760                       # average overall miss latency
system.l2.overall_avg_miss_latency::cpu.data 245447.464370                       # average overall miss latency
system.l2.overall_avg_miss_latency::total 245418.342094                       # average overall miss latency
system.l2.blocked_cycles::no_mshrs                  0                       # number of cycles access was blocked
system.l2.blocked_cycles::no_targets                0                       # number of cycles access was blocked
system.l2.blocked::no_mshrs                         0                       # number of cycles access was blocked
system.l2.blocked::no_targets                       0                       # number of cycles access was blocked
system.l2.avg_blocked_cycles::no_mshrs            nan                       # average number of cycles each access was blocked
system.l2.avg_blocked_cycles::no_targets          nan                       # average number of cycles each access was blocked
system.l2.writebacks::writebacks               508140                       # number of writebacks
system.l2.writebacks::total                    508140                       # number of writebacks
system.l2.ReadExReq_mshr_misses::cpu.data        63312                       # number of ReadExReq MSHR misses
system.l2.ReadExReq_mshr_misses::total          63312                       # number of ReadExReq MSHR misses
system.l2.ReadCleanReq_mshr_misses::cpu.inst          329                       # number of ReadCleanReq MSHR misses
system.l2.ReadCleanReq_mshr_misses::total          329                       # number of ReadCleanReq MSHR misses
system.l2.ReadSharedReq_mshr_misses::cpu.data       454784                       # number of ReadSharedReq MSHR misses
system.l2.ReadSharedReq_mshr_misses::total       454784                       # number of ReadSharedReq MSHR misses
system.l2.demand_mshr_misses::cpu.inst            329                       # number of demand (read+write) MSHR misses
system.l2.demand_mshr_misses::cpu.data         518096                       # number of demand (read+write) MSHR misses
system.l2.demand_mshr_misses::total            518425                       # number of demand (read+write) MSHR misses
system.l2.overall_mshr_misses::cpu.inst           329                       # number of overall MSHR misses
system.l2.overall_mshr_misses::cpu.data        518096                       # number of overall MSHR misses
system.l2.overall_mshr_misses::total           518425                       # number of overall MSHR misses
system.l2.ReadExReq_mshr_miss_latency::cpu.data  17849178500                       # number of ReadExReq MSHR miss cycles
system.l2.ReadExReq_mshr_miss_latency::total  17849178500                       # number of ReadExReq MSHR miss cycles
system.l2.ReadCleanReq_mshr_miss_latency::cpu.inst     62364500                       # number of ReadCleanReq MSHR miss cycles
system.l2.ReadCleanReq_mshr_miss_latency::total     62364500                       # number of ReadCleanReq MSHR miss cycles
system.l2.ReadSharedReq_mshr_miss_latency::cpu.data 104135211000                       # number of ReadSharedReq MSHR miss cycles
system.l2.ReadSharedReq_mshr_miss_latency::total 104135211000                       # number of ReadSharedReq MSHR miss cycles
system.l2.demand_mshr_miss_latency::cpu.inst     62364500                       # number of demand (read+write) MSHR miss cycles
system.l2.demand_mshr_miss_latency::cpu.data 121984389500                       # number of demand (read+write) MSHR miss cycles
system.l2.demand_mshr_miss_latency::total 122046754000                       # number of demand (read+write) MSHR miss cycles
system.l2.overall_mshr_miss_latency::cpu.inst     62364500                       # number of overall MSHR miss cycles
system.l2.overall_mshr_miss_latency::cpu.data 121984389500                       # number of overall MSHR miss cycles
system.l2.overall_mshr_miss_latency::total 122046754000                       # number of overall MSHR miss cycles
system.l2.ReadExReq_mshr_miss_rate::cpu.data     0.956996                       # mshr miss rate for ReadExReq accesses
system.l2.ReadExReq_mshr_miss_rate::total     0.956996                       # mshr miss rate for ReadExReq accesses
system.l2.ReadCleanReq_mshr_miss_rate::cpu.inst     0.973373                       # mshr miss rate for ReadCleanReq accesses
system.l2.ReadCleanReq_mshr_miss_rate::total     0.973373                       # mshr miss rate for ReadCleanReq accesses
system.l2.ReadSharedReq_mshr_miss_rate::cpu.data     0.738841                       # mshr miss rate for ReadSharedReq accesses
system.l2.ReadSharedReq_mshr_miss_rate::total     0.738841                       # mshr miss rate for ReadSharedReq accesses
system.l2.demand_mshr_miss_rate::cpu.inst     0.973373                       # mshr miss rate for demand accesses
system.l2.demand_mshr_miss_rate::cpu.data     0.760013                       # mshr miss rate for demand accesses
system.l2.demand_mshr_miss_rate::total       0.760118                       # mshr miss rate for demand accesses
system.l2.overall_mshr_miss_rate::cpu.inst     0.973373                       # mshr miss rate for overall accesses
system.l2.overall_mshr_miss_rate::cpu.data     0.760013                       # mshr miss rate for overall accesses
system.l2.overall_mshr_miss_rate::total      0.760118                       # mshr miss rate for overall accesses
system.l2.ReadExReq_avg_mshr_miss_latency::cpu.data 281924.098117                       # average ReadExReq mshr miss latency
system.l2.ReadExReq_avg_mshr_miss_latency::total 281924.098117                       # average ReadExReq mshr miss latency
system.l2.ReadCleanReq_avg_mshr_miss_latency::cpu.inst 189557.750760                       # average ReadCleanReq mshr miss latency
system.l2.ReadCleanReq_avg_mshr_miss_latency::total 189557.750760                       # average ReadCleanReq mshr miss latency
system.l2.ReadSharedReq_avg_mshr_miss_latency::cpu.data 228977.296915                       # average ReadSharedReq mshr miss latency
system.l2.ReadSharedReq_avg_mshr_miss_latency::total 228977.296915                       # average ReadSharedReq mshr miss latency
system.l2.demand_avg_mshr_miss_latency::cpu.inst 189557.750760                       # average overall mshr miss latency
system.l2.demand_avg_mshr_miss_latency::cpu.data 235447.464370                       # average overall mshr miss latency
system.l2.demand_avg_mshr_miss_latency::total 235418.342094                       # average overall mshr miss latency
system.l2.overall_avg_mshr_miss_latency::cpu.inst 189557.750760                       # average overall mshr miss latency
system.l2.overall_avg_mshr_miss_latency::cpu.data 235447.464370                       # average overall mshr miss latency
system.l2.overall_avg_mshr_miss_latency::total 235418.342094                       # average overall mshr miss latency
system.l2.replacements                         516534                       # number of replacements
system.l3.tags.pwrStateResidencyTicks::UNDEFINED 772246592000                       # Cumulative time (in ticks) in various power states
system.l3.tags.tagsinuse                 15957.031701                       # Cycle average of tags in use
system.l3.tags.total_refs                     1034560                       # Total number of references to valid blocks.
system.l3.tags.sampled_refs                    279998                       # Sample count of references to valid blocks.
system.l3.tags.avg_refs                      3.694884                       # Average number of references to valid blocks.
system.l3.tags.warmup_cycle                    418000                       # Cycle when the warmup percentage was hit.
system.l3.tags.occ_blocks::writebacks        1.319190                       # Average occupied blocks per requestor
system.l3.tags.occ_blocks::cpu.inst         11.987446                       # Average occupied blocks per requestor
system.l3.tags.occ_blocks::cpu.data      15943.725064                       # Average occupied blocks per requestor
system.l3.tags.occ_percent::writebacks       0.000081                       # Average percentage of cache occupancy
system.l3.tags.occ_percent::cpu.inst         0.000732                       # Average percentage of cache occupancy
system.l3.tags.occ_percent::cpu.data         0.973128                       # Average percentage of cache occupancy
system.l3.tags.occ_percent::total            0.973940                       # Average percentage of cache occupancy
system.l3.tags.occ_task_id_blocks::1024         16384                       # Occupied blocks per task id
system.l3.tags.age_task_id_blocks_1024::0           30                       # Occupied blocks per task id
system.l3.tags.age_task_id_blocks_1024::1           32                       # Occupied blocks per task id
system.l3.tags.age_task_id_blocks_1024::4        16322                       # Occupied blocks per task id
system.l3.tags.occ_task_id_percent::1024            1                       # Percentage of cache occupancy per task id
system.l3.tags.tag_accesses                   2349118                       # Number of tag accesses
system.l3.tags.data_accesses                  2349118                       # Number of data accesses
system.l3.pwrStateResidencyTicks::UNDEFINED 772246592000                       # Cumulative time (in ticks) in various power states
system.l3.WritebackDirty_hits::writebacks       508139                       # number of WritebackDirty hits
system.l3.WritebackDirty_hits::total           508139                       # number of WritebackDirty hits
system.l3.ReadExReq_hits::cpu.data                600                       # number of ReadExReq hits
system.l3.ReadExReq_hits::total                   600                       # number of ReadExReq hits
system.l3.ReadSharedReq_hits::cpu.data         237846                       # number of ReadSharedReq hits
system.l3.ReadSharedReq_hits::total            237846                       # number of ReadSharedReq hits
system.l3.demand_hits::cpu.data                238446                       # number of demand (read+write) hits
system.l3.demand_hits::total                   238446                       # number of demand (read+write) hits
system.l3.overall_hits::cpu.data               238446                       # number of overall hits
system.l3.overall_hits::total                  238446                       # number of overall hits
system.l3.ReadExReq_misses::cpu.data            62712                       # number of ReadExReq misses
system.l3.ReadExReq_misses::total               62712                       # number of ReadExReq misses
system.l3.ReadSharedReq_misses::cpu.inst          329                       # number of ReadSharedReq misses
system.l3.ReadSharedReq_misses::cpu.data       216938                       # number of ReadSharedReq misses
system.l3.ReadSharedReq_misses::total          217267                       # number of ReadSharedReq misses
system.l3.demand_misses::cpu.inst                 329                       # number of demand (read+write) misses
system.l3.demand_misses::cpu.data              279650                       # number of demand (read+write) misses
system.l3.demand_misses::total                 279979                       # number of demand (read+write) misses
system.l3.overall_misses::cpu.inst                329                       # number of overall misses
system.l3.overall_misses::cpu.data             279650                       # number of overall misses
system.l3.overall_misses::total                279979                       # number of overall misses
system.l3.ReadExReq_miss_latency::cpu.data  17142846500                       # number of ReadExReq miss cycles
system.l3.ReadExReq_miss_latency::total   17142846500                       # number of ReadExReq miss cycles
system.l3.ReadSharedReq_miss_latency::cpu.inst     58745500                       # number of ReadSharedReq miss cycles
system.l3.ReadSharedReq_miss_latency::cpu.data  95208128000                       # number of ReadSharedReq miss cycles
system.l3.ReadSharedReq_miss_latency::total  95266873500                       # number of ReadSharedReq miss cycles
system.l3.demand_miss_latency::cpu.inst      58745500                       # number of demand (read+write) miss cycles
system.l3.demand_miss_latency::cpu.data  112350974500                       # number of demand (read+write) miss cycles
system.l3.demand_miss_latency::total     112409720000                       # number of demand (read+write) miss cycles
system.l3.overall_miss_latency::cpu.inst     58745500                       # number of overall miss cycles
system.l3.overall_miss_latency::cpu.data 112350974500                       # number of overall miss cycles
system.l3.overall_miss_latency::total    112409720000                       # number of overall miss cycles
system.l3.WritebackDirty_accesses::writebacks       508139                       # number of WritebackDirty accesses(hits+misses)
system.l3.WritebackDirty_accesses::total       508139                       # number of WritebackDirty accesses(hits+misses)
system.l3.ReadExReq_accesses::cpu.data          63312                       # number of ReadExReq accesses(hits+misses)
system.l3.ReadExReq_accesses::total             63312                       # number of ReadExReq accesses(hits+misses)
system.l3.ReadSharedReq_accesses::cpu.inst          329                       # number of ReadSharedReq accesses(hits+misses)
system.l3.ReadSharedReq_accesses::cpu.data       454784                       # number of ReadSharedReq accesses(hits+misses)
system.l3.ReadSharedReq_accesses::total        455113                       # number of ReadSharedReq accesses(hits+misses)
system.l3.demand_accesses::cpu.inst               329                       # number of demand (read+write) accesses
system.l3.demand_accesses::cpu.data            518096                       # number of demand (read+write) accesses
system.l3.demand_accesses::total               518425                       # number of demand (read+write) accesses
system.l3.overall_accesses::cpu.inst              329                       # number of overall (read+write) accesses
system.l3.overall_accesses::cpu.data           518096                       # number of overall (read+write) accesses
system.l3.overall_accesses::total              518425                       # number of overall (read+write) accesses
system.l3.ReadExReq_miss_rate::cpu.data      0.990523                       # miss rate for ReadExReq accesses
system.l3.ReadExReq_miss_rate::total         0.990523                       # miss rate for ReadExReq accesses
system.l3.ReadSharedReq_miss_rate::cpu.inst            1                       # miss rate for ReadSharedReq accesses
system.l3.ReadSharedReq_miss_rate::cpu.data     0.477013                       # miss rate for ReadSharedReq accesses
system.l3.ReadSharedReq_miss_rate::total     0.477391                       # miss rate for ReadSharedReq accesses
system.l3.demand_miss_rate::cpu.inst                1                       # miss rate for demand accesses
system.l3.demand_miss_rate::cpu.data         0.539765                       # miss rate for demand accesses
system.l3.demand_miss_rate::total            0.540057                       # miss rate for demand accesses
system.l3.overall_miss_rate::cpu.inst               1                       # miss rate for overall accesses
system.l3.overall_miss_rate::cpu.data        0.539765                       # miss rate for overall accesses
system.l3.overall_miss_rate::total           0.540057                       # miss rate for overall accesses
system.l3.ReadExReq_avg_miss_latency::cpu.data 273358.312604                       # average ReadExReq miss latency
system.l3.ReadExReq_avg_miss_latency::total 273358.312604                       # average ReadExReq miss latency
system.l3.ReadSharedReq_avg_miss_latency::cpu.inst 178557.750760                       # average ReadSharedReq miss latency
system.l3.ReadSharedReq_avg_miss_latency::cpu.data 438872.525791                       # average ReadSharedReq miss latency
system.l3.ReadSharedReq_avg_miss_latency::total 438478.340015                       # average ReadSharedReq miss latency
system.l3.demand_avg_miss_latency::cpu.inst 178557.750760                       # average overall miss latency
system.l3.demand_avg_miss_latency::cpu.data 401755.674951                       # average overall miss latency
system.l3.demand_avg_miss_latency::total 401493.397719                       # average overall miss latency
system.l3.overall_avg_miss_latency::cpu.inst 178557.750760                       # average overall miss latency
system.l3.overall_avg_miss_latency::cpu.data 401755.674951                       # average overall miss latency
system.l3.overall_avg_miss_latency::total 401493.397719                       # average overall miss latency
system.l3.blocked_cycles::no_mshrs                  0                       # number of cycles access was blocked
system.l3.blocked_cycles::no_targets                0                       # number of cycles access was blocked
system.l3.blocked::no_mshrs                         0                       # number of cycles access was blocked
system.l3.blocked::no_targets                       0                       # number of cycles access was blocked
system.l3.avg_blocked_cycles::no_mshrs            nan                       # average number of cycles each access was blocked
system.l3.avg_blocked_cycles::no_targets          nan                       # average number of cycles each access was blocked
system.l3.writebacks::writebacks               256958                       # number of writebacks
system.l3.writebacks::total                    256958                       # number of writebacks
system.l3.ReadExReq_mshr_misses::cpu.data        62712                       # number of ReadExReq MSHR misses
system.l3.ReadExReq_mshr_misses::total          62712                       # number of ReadExReq MSHR misses
system.l3.ReadSharedReq_mshr_misses::cpu.inst          329                       # number of ReadSharedReq MSHR misses
system.l3.ReadSharedReq_mshr_misses::cpu.data       216938                       # number of ReadSharedReq MSHR misses
system.l3.ReadSharedReq_mshr_misses::total       217267                       # number of ReadSharedReq MSHR misses
system.l3.demand_mshr_misses::cpu.inst            329                       # number of demand (read+write) MSHR misses
system.l3.demand_mshr_misses::cpu.data         279650                       # number of demand (read+write) MSHR misses
system.l3.demand_mshr_misses::total            279979                       # number of demand (read+write) MSHR misses
system.l3.overall_mshr_misses::cpu.inst           329                       # number of overall MSHR misses
system.l3.overall_mshr_misses::cpu.data        279650                       # number of overall MSHR misses
system.l3.overall_mshr_misses::total           279979                       # number of overall MSHR misses
system.l3.ReadExReq_mshr_miss_latency::cpu.data  16139454500                       # number of ReadExReq MSHR miss cycles
system.l3.ReadExReq_mshr_miss_latency::total  16139454500                       # number of ReadExReq MSHR miss cycles
system.l3.ReadSharedReq_mshr_miss_latency::cpu.inst     53481500                       # number of ReadSharedReq MSHR miss cycles
system.l3.ReadSharedReq_mshr_miss_latency::cpu.data  91737120000                       # number of ReadSharedReq MSHR miss cycles
system.l3.ReadSharedReq_mshr_miss_latency::total  91790601500                       # number of ReadSharedReq MSHR miss cycles
system.l3.demand_mshr_miss_latency::cpu.inst     53481500                       # number of demand (read+write) MSHR miss cycles
system.l3.demand_mshr_miss_latency::cpu.data 107876574500                       # number of demand (read+write) MSHR miss cycles
system.l3.demand_mshr_miss_latency::total 107930056000                       # number of demand (read+write) MSHR miss cycles
system.l3.overall_mshr_miss_latency::cpu.inst     53481500                       # number of overall MSHR miss cycles
system.l3.overall_mshr_miss_latency::cpu.data 107876574500                       # number of overall MSHR miss cycles
system.l3.overall_mshr_miss_latency::total 107930056000                       # number of overall MSHR miss cycles
system.l3.ReadExReq_mshr_miss_rate::cpu.data     0.990523                       # mshr miss rate for ReadExReq accesses
system.l3.ReadExReq_mshr_miss_rate::total     0.990523                       # mshr miss rate for ReadExReq accesses
system.l3.ReadSharedReq_mshr_miss_rate::cpu.inst            1                       # mshr miss rate for ReadSharedReq accesses
system.l3.ReadSharedReq_mshr_miss_rate::cpu.data     0.477013                       # mshr miss rate for ReadSharedReq accesses
system.l3.ReadSharedReq_mshr_miss_rate::total     0.477391                       # mshr miss rate for ReadSharedReq accesses
system.l3.demand_mshr_miss_rate::cpu.inst            1                       # mshr miss rate for demand accesses
system.l3.demand_mshr_miss_rate::cpu.data     0.539765                       # mshr miss rate for demand accesses
system.l3.demand_mshr_miss_rate::total       0.540057                       # mshr miss rate for demand accesses
system.l3.overall_mshr_miss_rate::cpu.inst            1                       # mshr miss rate for overall accesses
system.l3.overall_mshr_miss_rate::cpu.data     0.539765                       # mshr miss rate for overall accesses
system.l3.overall_mshr_miss_rate::total      0.540057                       # mshr miss rate for overall accesses
system.l3.ReadExReq_avg_mshr_miss_latency::cpu.data 257358.312604                       # average ReadExReq mshr miss latency
system.l3.ReadExReq_avg_mshr_miss_latency::total 257358.312604                       # average ReadExReq mshr miss latency
system.l3.ReadSharedReq_avg_mshr_miss_latency::cpu.inst 162557.750760                       # average ReadSharedReq mshr miss latency
system.l3.ReadSharedReq_avg_mshr_miss_latency::cpu.data 422872.525791                       # average ReadSharedReq mshr miss latency
system.l3.ReadSharedReq_avg_mshr_miss_latency::total 422478.340015                       # average ReadSharedReq mshr miss latency
system.l3.demand_avg_mshr_miss_latency::cpu.inst 162557.750760                       # average overall mshr miss latency
system.l3.demand_avg_mshr_miss_latency::cpu.data 385755.674951                       # average overall mshr miss latency
system.l3.demand_avg_mshr_miss_latency::total 385493.397719                       # average overall mshr miss latency
system.l3.overall_avg_mshr_miss_latency::cpu.inst 162557.750760                       # average overall mshr miss latency
system.l3.overall_avg_mshr_miss_latency::cpu.data 385755.674951                       # average overall mshr miss latency
system.l3.overall_avg_mshr_miss_latency::total 385493.397719                       # average overall mshr miss latency
system.l3.replacements                         263614                       # number of replacements
system.membus.snoop_filter.tot_requests        543315                       # Total number of requests made to the snoop filter.
system.membus.snoop_filter.hit_single_requests       263336                       # Number of requests hitting in the snoop filter with a single holder of the requested data.
system.membus.snoop_filter.hit_multi_requests            0                       # Number of requests hitting in the snoop filter with multiple (>1) holders of the requested data.
system.membus.snoop_filter.tot_snoops               0                       # Total number of snoops made to the snoop filter.
system.membus.snoop_filter.hit_single_snoops            0                       # Number of snoops hitting in the snoop filter with a single holder of the requested data.
system.membus.snoop_filter.hit_multi_snoops            0                       # Number of snoops hitting in the snoop filter with multiple (>1) holders of the requested data.
system.membus.pwrStateResidencyTicks::UNDEFINED 772246592000                       # Cumulative time (in ticks) in various power states
system.membus.trans_dist::ReadResp             217267                       # Transaction distribution
system.membus.trans_dist::WritebackDirty       256958                       # Transaction distribution
system.membus.trans_dist::CleanEvict             6378                       # Transaction distribution
system.membus.trans_dist::ReadExReq             62712                       # Transaction distribution
system.membus.trans_dist::ReadExResp            62712                       # Transaction distribution
system.membus.trans_dist::ReadSharedReq        217267                       # Transaction distribution
system.membus.pkt_count_system.l3.mem_side::system.mem_ctrls.port       823294                       # Packet count per connected master and slave (bytes)
system.membus.pkt_count_system.l3.mem_side::total       823294                       # Packet count per connected master and slave (bytes)
system.membus.pkt_count::total                 823294                       # Packet count per connected master and slave (bytes)
system.membus.pkt_size_system.l3.mem_side::system.mem_ctrls.port     34363968                       # Cumulative packet size per connected master and slave (bytes)
system.membus.pkt_size_system.l3.mem_side::total     34363968                       # Cumulative packet size per connected master and slave (bytes)
system.membus.pkt_size::total                34363968                       # Cumulative packet size per connected master and slave (bytes)
system.membus.snoops                                0                       # Total snoops (count)
system.membus.snoopTraffic                          0                       # Total snoop traffic (bytes)
system.membus.snoop_fanout::samples            279979                       # Request fanout histogram
system.membus.snoop_fanout::mean                    0                       # Request fanout histogram
system.membus.snoop_fanout::stdev                   0                       # Request fanout histogram
system.membus.snoop_fanout::underflows              0      0.00%      0.00% # Request fanout histogram
system.membus.snoop_fanout::0                  279979    100.00%    100.00% # Request fanout histogram
system.membus.snoop_fanout::1                       0      0.00%    100.00% # Request fanout histogram
system.membus.snoop_fanout::overflows               0      0.00%    100.00% # Request fanout histogram
system.membus.snoop_fanout::min_value               0                       # Request fanout histogram
system.membus.snoop_fanout::max_value               0                       # Request fanout histogram
system.membus.snoop_fanout::total              279979                       # Request fanout histogram
system.membus.reqLayer2.occupancy          1571151500                       # Layer occupancy (ticks)
system.membus.reqLayer2.utilization               0.2                       # Layer utilization (%)
system.membus.respLayer1.occupancy         1399899500                       # Layer occupancy (ticks)
system.membus.respLayer1.utilization              0.2                       # Layer utilization (%)
system.tol2bus.snoop_filter.tot_requests      1583193                       # Total number of requests made to the snoop filter.
system.tol2bus.snoop_filter.hit_single_requests       901161                       # Number of requests hitting in the snoop filter with a single holder of the requested data.
system.tol2bus.snoop_filter.hit_multi_requests            1                       # Number of requests hitting in the snoop filter with multiple (>1) holders of the requested data.
system.tol2bus.snoop_filter.tot_snoops            676                       # Total number of snoops made to the snoop filter.
system.tol2bus.snoop_filter.hit_single_snoops          676                       # Number of snoops hitting in the snoop filter with a single holder of the requested data.
system.tol2bus.snoop_filter.hit_multi_snoops            0                       # Number of snoops hitting in the snoop filter with multiple (>1) holders of the requested data.
system.tol2bus.pwrStateResidencyTicks::UNDEFINED 772246592000                       # Cumulative time (in ticks) in various power states
system.tol2bus.trans_dist::ReadResp            615875                       # Transaction distribution
system.tol2bus.trans_dist::WritebackDirty      1421916                       # Transaction distribution
system.tol2bus.trans_dist::WritebackClean           57                       # Transaction distribution
system.tol2bus.trans_dist::CleanEvict           39414                       # Transaction distribution
system.tol2bus.trans_dist::UpgradeReq          219922                       # Transaction distribution
system.tol2bus.trans_dist::UpgradeResp         219922                       # Transaction distribution
system.tol2bus.trans_dist::ReadExReq            66157                       # Transaction distribution
system.tol2bus.trans_dist::ReadExResp           66157                       # Transaction distribution
system.tol2bus.trans_dist::ReadCleanReq           338                       # Transaction distribution
system.tol2bus.trans_dist::ReadSharedReq       615537                       # Transaction distribution
system.tol2bus.pkt_count_system.cpu.icache.mem_side::system.l2.cpu_side          733                       # Packet count per connected master and slave (bytes)
system.tol2bus.pkt_count_system.cpu.dcache.mem_side::system.l2.cpu_side      2484414                       # Packet count per connected master and slave (bytes)
system.tol2bus.pkt_count::total               2485147                       # Packet count per connected master and slave (bytes)
system.tol2bus.pkt_size_system.cpu.icache.mem_side::system.l2.cpu_side        25280                       # Cumulative packet size per connected master and slave (bytes)
system.tol2bus.pkt_size_system.cpu.dcache.mem_side::system.l2.cpu_side     85664768                       # Cumulative packet size per connected master and slave (bytes)
system.tol2bus.pkt_size::total               85690048                       # Cumulative packet size per connected master and slave (bytes)
system.tol2bus.snoops                          780148                       # Total snoops (count)
system.tol2bus.snoopTraffic                  48966272                       # Total snoop traffic (bytes)
system.tol2bus.snoop_fanout::samples          1682102                       # Request fanout histogram
system.tol2bus.snoop_fanout::mean            0.000402                       # Request fanout histogram
system.tol2bus.snoop_fanout::stdev           0.020058                       # Request fanout histogram
system.tol2bus.snoop_fanout::underflows             0      0.00%      0.00% # Request fanout histogram
system.tol2bus.snoop_fanout::0                1681425     99.96%     99.96% # Request fanout histogram
system.tol2bus.snoop_fanout::1                    677      0.04%    100.00% # Request fanout histogram
system.tol2bus.snoop_fanout::2                      0      0.00%    100.00% # Request fanout histogram
system.tol2bus.snoop_fanout::3                      0      0.00%    100.00% # Request fanout histogram
system.tol2bus.snoop_fanout::4                      0      0.00%    100.00% # Request fanout histogram
system.tol2bus.snoop_fanout::overflows              0      0.00%    100.00% # Request fanout histogram
system.tol2bus.snoop_fanout::min_value              0                       # Request fanout histogram
system.tol2bus.snoop_fanout::max_value              1                       # Request fanout histogram
system.tol2bus.snoop_fanout::total            1682102                       # Request fanout histogram
system.tol2bus.reqLayer0.occupancy         1448471500                       # Layer occupancy (ticks)
system.tol2bus.reqLayer0.utilization              0.2                       # Layer utilization (%)
system.tol2bus.respLayer0.occupancy            507000                       # Layer occupancy (ticks)
system.tol2bus.respLayer0.utilization             0.0                       # Layer utilization (%)
system.tol2bus.respLayer1.occupancy        1132502000                       # Layer occupancy (ticks)
system.tol2bus.respLayer1.utilization             0.1                       # Layer utilization (%)
system.tol3bus.pwrStateResidencyTicks::UNDEFINED 772246592000                       # Cumulative time (in ticks) in various power states
system.tol3bus.trans_dist::ReadResp            455113                       # Transaction distribution
system.tol3bus.trans_dist::WritebackDirty       765097                       # Transaction distribution
system.tol3bus.trans_dist::CleanEvict           14652                       # Transaction distribution
system.tol3bus.trans_dist::ReadExReq            63312                       # Transaction distribution
system.tol3bus.trans_dist::ReadExResp           63312                       # Transaction distribution
system.tol3bus.trans_dist::ReadSharedReq       455113                       # Transaction distribution
system.tol3bus.pkt_count_system.l2.mem_side::system.l3.cpu_side      1552985                       # Packet count per connected master and slave (bytes)
system.tol3bus.pkt_size_system.l2.mem_side::system.l3.cpu_side     65700096                       # Cumulative packet size per connected master and slave (bytes)
system.tol3bus.snoops                          263614                       # Total snoops (count)
system.tol3bus.snoopTraffic                  16445312                       # Total snoop traffic (bytes)
system.tol3bus.snoop_fanout::samples          1298174                       # Request fanout histogram
system.tol3bus.snoop_fanout::mean            0.203065                       # Request fanout histogram
system.tol3bus.snoop_fanout::stdev           0.402281                       # Request fanout histogram
system.tol3bus.snoop_fanout::underflows             0      0.00%      0.00% # Request fanout histogram
system.tol3bus.snoop_fanout::0                1034560     79.69%     79.69% # Request fanout histogram
system.tol3bus.snoop_fanout::1                 263614     20.31%    100.00% # Request fanout histogram
system.tol3bus.snoop_fanout::overflows              0      0.00%    100.00% # Request fanout histogram
system.tol3bus.snoop_fanout::min_value              0                       # Request fanout histogram
system.tol3bus.snoop_fanout::max_value              1                       # Request fanout histogram
system.tol3bus.snoop_fanout::total            1298174                       # Request fanout histogram
system.tol3bus.reqLayer0.occupancy         1025419000                       # Layer occupancy (ticks)
system.tol3bus.reqLayer0.utilization              0.1                       # Layer utilization (%)
system.tol3bus.respLayer0.occupancy         777637500                       # Layer occupancy (ticks)
system.tol3bus.respLayer0.utilization             0.1                       # Layer utilization (%)

---------- End Simulation Statistics   ----------
